LTspice 24.0.12 for Windows
Circuit: * C:\Users\Facun\Desktop\Tp 1 Lt Spice\1_a_Diodo_Analisis_temp_diferentes.asc
Start Time: Sun May 19 23:04:25 2024
Warning: Multiple definitions of model "1n4148" Type: Diode
solver = Normal
Maximum thread count: 8



.step temp=27°C



.step temp=35°C



.step temp=56°C
tnom = 27
temp = 78
method = modified trap
.step temp=78°C
Total elapsed time: 0.374 seconds.

