LTspice 24.0.12 for Windows
Circuit: * C:\Users\Facun\Desktop\Tp 1 Lt Spice\2_a_Rd_Diodo_PN_1n4148.asc
Start Time: Sun May 19 11:43:23 2024
solver = Normal
Maximum thread count: 8
tnom = 27
temp = 27
method = modified trap
WARNING: Node VO is floating.

WARNING: Less than two connections to node vo.  This node is used by c1.
Direct Newton iteration for .op point succeeded.
Total elapsed time: 0.229 seconds.

