LTspice 24.0.12 for Windows
Circuit: * C:\Users\Facun\Desktop\Tp 1 Lt Spice\3_PulseTrain_Response_Diodo_PN_1n4148.asc
Start Time: Sun May 19 20:53:57 2024
Warning: Multiple definitions of model "1n4148" Type: Diode
solver = Normal
Maximum thread count: 8
tnom = 27
temp = 27
method = modified trap
Direct Newton iteration for .op point succeeded.
Total elapsed time: 0.318 seconds.

