LTspice 24.0.12 for Windows
Circuit: * C:\Users\Facun\Desktop\Tp2 Transistores TBJ-LtSpice\Draft1.asc
Start Time: Sat Jun  8 16:50:31 2024
Warning: Multiple definitions of model "2scr375p" Type: BJT
Warning: Multiple definitions of model "bc857b" Type: BJT
Warning: Multiple definitions of model "bc847c" Type: BJT
Warning: Multiple definitions of model "bc847b" Type: BJT
solver = Normal
Maximum thread count: 8
tnom = 27
temp = 27
method = modified trap
.step ib=1e-06
.step ib=1e-05
.step ib=2e-05
.step ib=3e-05
.step ib=4e-05
.step ib=5e-05
.step ib=6e-05
.step ib=7e-05
.step ib=8e-05
.step ib=9e-05
.step ib=0.0001
Total elapsed time: 1.158 seconds.

