LTspice 24.0.12 for Windows
Circuit: * C:\Users\Facun\Desktop\Tp 1 Lt Spice\3_Senoidal_Response_Diodo_PN_1n4148.asc
Start Time: Mon May 20 12:08:10 2024
Warning: Multiple definitions of model "1n4148" Type: Diode
solver = Normal
Maximum thread count: 8
tnom = 27
temp = 27
method = modified trap
.OP point found by inspection.
Total elapsed time: 0.238 seconds.

