LTspice 24.0.12 for Windows
Circuit: * C:\Users\Facun\Desktop\Tp 1 Lt Spice\Draft1.asc
Start Time: Sun May 19 17:37:04 2024
solver = Normal
Maximum thread count: 8
tnom = 27
temp = 27
method = modified trap
Direct Newton iteration for .op point succeeded.
Total elapsed time: 0.269 seconds.

