LTspice 24.0.12 for Windows
Circuit: * C:\Users\Facun\Desktop\ltspiceTPMOS\TPMOS1B.asc
Start Time: Mon Jul 15 12:06:40 2024
solver = Normal
Maximum thread count: 8
tnom = 27
temp = 27
method = modified trap
.OP point found by inspection.
.step v2=0
.step v2=1
.step v2=2
.step v2=3
.step v2=4
.step v2=5
.step v2=6
.step v2=7
.step v2=8
.step v2=9
Total elapsed time: 0.379 seconds.

