LTspice 24.0.12 for Windows
Circuit: * C:\Users\Facun\Desktop\ltspiceTPMOS\TPMOS3.asc
Start Time: Mon Jul 15 14:20:49 2024
solver = Normal
Maximum thread count: 8
tnom = 27
temp = 27
method = modified trap
Direct Newton iteration for .op point succeeded.
Total elapsed time: 0.413 seconds.

